4
The is an optional comment line that can be empty.
Ar 0 0 0
Ar 2.65624 2.65624 0
Ar 0 2.65624 2.65624
Ar 2.65624 0 2.65624
4
The is an optional comment line that can be empty.
Ar 0 0 0
Ar 2.68274 2.68274 0
Ar 0 2.68274 2.68274
Ar 2.68274 0 2.68274
4
The is an optional comment line that can be empty.
Ar 0 0 0
Ar 2.70951 2.70951 0
Ar 0 2.70951 2.70951
Ar 2.70951 0 2.70951
4
The is an optional comment line that can be empty.
Ar 0 0 0
Ar 2.73655 2.73655 0
Ar 0 2.73655 2.73655
Ar 2.73655 0 2.73655
4
The is an optional comment line that can be empty.
Ar 0 0 0
Ar 2.76385 2.76385 0
Ar 0 2.76385 2.76385
Ar 2.76385 0 2.76385
4
The is an optional comment line that can be empty.
Ar 0 0 0
Ar 2.79143 2.79143 0
Ar 0 2.79143 2.79143
Ar 2.79143 0 2.79143
4
The is an optional comment line that can be empty.
Ar 0 0 0
Ar 2.81928 2.81928 0
Ar 0 2.81928 2.81928
Ar 2.81928 0 2.81928
4
The is an optional comment line that can be empty.
Ar 0 0 0
Ar 2.84741 2.84741 0
Ar 0 2.84741 2.84741
Ar 2.84741 0 2.84741
4
The is an optional comment line that can be empty.
Ar 0 0 0
Ar 2.87582 2.87582 0
Ar 0 2.87582 2.87582
Ar 2.87582 0 2.87582
4
The is an optional comment line that can be empty.
Ar 0 0 0
Ar 2.90451 2.90451 0
Ar 0 2.90451 2.90451
Ar 2.90451 0 2.90451
4
The is an optional comment line that can be empty.
Ar 0 0 0
Ar 2.93349 2.93349 0
Ar 0 2.93349 2.93349
Ar 2.93349 0 2.93349
4
The is an optional comment line that can be empty.
Ar 0 0 0
Ar 2.96276 2.96276 0
Ar 0 2.96276 2.96276
Ar 2.96276 0 2.96276
4
The is an optional comment line that can be empty.
Ar 0 0 0
Ar 2.99232 2.99232 0
Ar 0 2.99232 2.99232
Ar 2.99232 0 2.99232
4
The is an optional comment line that can be empty.
Ar 0 0 0
Ar 3.02218 3.02218 0
Ar 0 3.02218 3.02218
Ar 3.02218 0 3.02218
4
The is an optional comment line that can be empty.
Ar 0 0 0
Ar 3.05234 3.05234 0
Ar 0 3.05234 3.05234
Ar 3.05234 0 3.05234
4
The is an optional comment line that can be empty.
Ar 0 0 0
Ar 3.08279 3.08279 0
Ar 0 3.08279 3.08279
Ar 3.08279 0 3.08279
4
The is an optional comment line that can be empty.
Ar 0 0 0
Ar 3.11355 3.11355 0
Ar 0 3.11355 3.11355
Ar 3.11355 0 3.11355
4
The is an optional comment line that can be empty.
Ar 0 0 0
Ar 3.14462 3.14462 0
Ar 0 3.14462 3.14462
Ar 3.14462 0 3.14462
4
The is an optional comment line that can be empty.
Ar 0 0 0
Ar 3.17599 3.17599 0
Ar 0 3.17599 3.17599
Ar 3.17599 0 3.17599
4
The is an optional comment line that can be empty.
Ar 0 0 0
Ar 3.20768 3.20768 0
Ar 0 3.20768 3.20768
Ar 3.20768 0 3.20768
4
The is an optional comment line that can be empty.
Ar 0 0 0
Ar 3.23969 3.23969 0
Ar 0 3.23969 3.23969
Ar 3.23969 0 3.23969
4
The is an optional comment line that can be empty.
Ar 0 0 0
Ar 3.27201 3.27201 0
Ar 0 3.27201 3.27201
Ar 3.27201 0 3.27201
4
The is an optional comment line that can be empty.
Ar 0 0 0
Ar 3.30466 3.30466 0
Ar 0 3.30466 3.30466
Ar 3.30466 0 3.30466
4
The is an optional comment line that can be empty.
Ar 0 0 0
Ar 3.33763 3.33763 0
Ar 0 3.33763 3.33763
Ar 3.33763 0 3.33763
4
The is an optional comment line that can be empty.
Ar 0 0 0
Ar 3.37093 3.37093 0
Ar 0 3.37093 3.37093
Ar 3.37093 0 3.37093
4
The is an optional comment line that can be empty.
Ar 0 0 0
Ar 3.40457 3.40457 0
Ar 0 3.40457 3.40457
Ar 3.40457 0 3.40457
4
The is an optional comment line that can be empty.
Ar 0 0 0
Ar 3.43853 3.43853 0
Ar 0 3.43853 3.43853
Ar 3.43853 0 3.43853
4
The is an optional comment line that can be empty.
Ar 0 0 0
Ar 3.47284 3.47284 0
Ar 0 3.47284 3.47284
Ar 3.47284 0 3.47284
4
The is an optional comment line that can be empty.
Ar 0 0 0
Ar 3.50749 3.50749 0
Ar 0 3.50749 3.50749
Ar 3.50749 0 3.50749
4
The is an optional comment line that can be empty.
Ar 0 0 0
Ar 3.54249 3.54249 0
Ar 0 3.54249 3.54249
Ar 3.54249 0 3.54249
4
The is an optional comment line that can be empty.
Ar 0 0 0
Ar 3.57784 3.57784 0
Ar 0 3.57784 3.57784
Ar 3.57784 0 3.57784
4
The is an optional comment line that can be empty.
Ar 0 0 0
Ar 3.61353 3.61353 0
Ar 0 3.61353 3.61353
Ar 3.61353 0 3.61353
4
The is an optional comment line that can be empty.
Ar 0 0 0
Ar 3.64959 3.64959 0
Ar 0 3.64959 3.64959
Ar 3.64959 0 3.64959
4
The is an optional comment line that can be empty.
Ar 0 0 0
Ar 3.686 3.686 0
Ar 0 3.686 3.686
Ar 3.686 0 3.686
4
The is an optional comment line that can be empty.
Ar 0 0 0
Ar 3.72278 3.72278 0
Ar 0 3.72278 3.72278
Ar 3.72278 0 3.72278
4
The is an optional comment line that can be empty.
Ar 0 0 0
Ar 3.75993 3.75993 0
Ar 0 3.75993 3.75993
Ar 3.75993 0 3.75993
4
The is an optional comment line that can be empty.
Ar 0 0 0
Ar 3.79744 3.79744 0
Ar 0 3.79744 3.79744
Ar 3.79744 0 3.79744
4
The is an optional comment line that can be empty.
Ar 0 0 0
Ar 3.83533 3.83533 0
Ar 0 3.83533 3.83533
Ar 3.83533 0 3.83533
4
The is an optional comment line that can be empty.
Ar 0 0 0
Ar 3.8736 3.8736 0
Ar 0 3.8736 3.8736
Ar 3.8736 0 3.8736
4
The is an optional comment line that can be empty.
Ar 0 0 0
Ar 3.91225 3.91225 0
Ar 0 3.91225 3.91225
Ar 3.91225 0 3.91225
4
The is an optional comment line that can be empty.
Ar 0 0 0
Ar 3.95128 3.95128 0
Ar 0 3.95128 3.95128
Ar 3.95128 0 3.95128
4
The is an optional comment line that can be empty.
Ar 0 0 0
Ar 3.99071 3.99071 0
Ar 0 3.99071 3.99071
Ar 3.99071 0 3.99071
4
The is an optional comment line that can be empty.
Ar 0 0 0
Ar 4.03053 4.03053 0
Ar 0 4.03053 4.03053
Ar 4.03053 0 4.03053
4
The is an optional comment line that can be empty.
Ar 0 0 0
Ar 4.07074 4.07074 0
Ar 0 4.07074 4.07074
Ar 4.07074 0 4.07074
4
The is an optional comment line that can be empty.
Ar 0 0 0
Ar 4.11136 4.11136 0
Ar 0 4.11136 4.11136
Ar 4.11136 0 4.11136
4
The is an optional comment line that can be empty.
Ar 0 0 0
Ar 4.15238 4.15238 0
Ar 0 4.15238 4.15238
Ar 4.15238 0 4.15238
4
The is an optional comment line that can be empty.
Ar 0 0 0
Ar 4.19381 4.19381 0
Ar 0 4.19381 4.19381
Ar 4.19381 0 4.19381
4
The is an optional comment line that can be empty.
Ar 0 0 0
Ar 4.23565 4.23565 0
Ar 0 4.23565 4.23565
Ar 4.23565 0 4.23565
4
The is an optional comment line that can be empty.
Ar 0 0 0
Ar 4.27792 4.27792 0
Ar 0 4.27792 4.27792
Ar 4.27792 0 4.27792
4
The is an optional comment line that can be empty.
Ar 0 0 0
Ar 4.3206 4.3206 0
Ar 0 4.3206 4.3206
Ar 4.3206 0 4.3206
4
The is an optional comment line that can be empty.
Ar 0 0 0
Ar 4.36371 4.36371 0
Ar 0 4.36371 4.36371
Ar 4.36371 0 4.36371
4
The is an optional comment line that can be empty.
Ar 0 0 0
Ar 4.40725 4.40725 0
Ar 0 4.40725 4.40725
Ar 4.40725 0 4.40725
4
The is an optional comment line that can be empty.
Ar 0 0 0
Ar 4.45122 4.45122 0
Ar 0 4.45122 4.45122
Ar 4.45122 0 4.45122
4
The is an optional comment line that can be empty.
Ar 0 0 0
Ar 4.49564 4.49564 0
Ar 0 4.49564 4.49564
Ar 4.49564 0 4.49564
4
The is an optional comment line that can be empty.
Ar 0 0 0
Ar 4.54049 4.54049 0
Ar 0 4.54049 4.54049
Ar 4.54049 0 4.54049
4
The is an optional comment line that can be empty.
Ar 0 0 0
Ar 4.58579 4.58579 0
Ar 0 4.58579 4.58579
Ar 4.58579 0 4.58579
4
The is an optional comment line that can be empty.
Ar 0 0 0
Ar 4.63155 4.63155 0
Ar 0 4.63155 4.63155
Ar 4.63155 0 4.63155
4
The is an optional comment line that can be empty.
Ar 0 0 0
Ar 4.67776 4.67776 0
Ar 0 4.67776 4.67776
Ar 4.67776 0 4.67776
4
The is an optional comment line that can be empty.
Ar 0 0 0
Ar 4.72443 4.72443 0
Ar 0 4.72443 4.72443
Ar 4.72443 0 4.72443
4
The is an optional comment line that can be empty.
Ar 0 0 0
Ar 4.77157 4.77157 0
Ar 0 4.77157 4.77157
Ar 4.77157 0 4.77157
4
The is an optional comment line that can be empty.
Ar 0 0 0
Ar 4.81918 4.81918 0
Ar 0 4.81918 4.81918
Ar 4.81918 0 4.81918
4
The is an optional comment line that can be empty.
Ar 0 0 0
Ar 4.86727 4.86727 0
Ar 0 4.86727 4.86727
Ar 4.86727 0 4.86727
4
The is an optional comment line that can be empty.
Ar 0 0 0
Ar 4.91583 4.91583 0
Ar 0 4.91583 4.91583
Ar 4.91583 0 4.91583
4
The is an optional comment line that can be empty.
Ar 0 0 0
Ar 4.96488 4.96488 0
Ar 0 4.96488 4.96488
Ar 4.96488 0 4.96488
4
The is an optional comment line that can be empty.
Ar 0 0 0
Ar 5.01442 5.01442 0
Ar 0 5.01442 5.01442
Ar 5.01442 0 5.01442
4
The is an optional comment line that can be empty.
Ar 0 0 0
Ar 5.06445 5.06445 0
Ar 0 5.06445 5.06445
Ar 5.06445 0 5.06445
4
The is an optional comment line that can be empty.
Ar 0 0 0
Ar 5.11498 5.11498 0
Ar 0 5.11498 5.11498
Ar 5.11498 0 5.11498
4
The is an optional comment line that can be empty.
Ar 0 0 0
Ar 5.16602 5.16602 0
Ar 0 5.16602 5.16602
Ar 5.16602 0 5.16602
4
The is an optional comment line that can be empty.
Ar 0 0 0
Ar 5.21756 5.21756 0
Ar 0 5.21756 5.21756
Ar 5.21756 0 5.21756
4
The is an optional comment line that can be empty.
Ar 0 0 0
Ar 0.00961985 0.00961985 0
Ar 0 0.00961985 0.00961985
Ar 0.00961985 0 0.00961985
4
The is an optional comment line that can be empty.
Ar 0 0 0
Ar 0.00971583 0.00971583 0
Ar 0 0.00971583 0.00971583
Ar 0.00971583 0 0.00971583
4
The is an optional comment line that can be empty.
Ar 0 0 0
Ar 0.00981278 0.00981278 0
Ar 0 0.00981278 0.00981278
Ar 0.00981278 0 0.00981278
4
The is an optional comment line that can be empty.
Ar 0 0 0
Ar 0.00991068 0.00991068 0
Ar 0 0.00991068 0.00991068
Ar 0.00991068 0 0.00991068
4
The is an optional comment line that can be empty.
Ar 0 0 0
Ar 0.0100096 0.0100096 0
Ar 0 0.0100096 0.0100096
Ar 0.0100096 0 0.0100096
4
The is an optional comment line that can be empty.
Ar 0 0 0
Ar 0.0101094 0.0101094 0
Ar 0 0.0101094 0.0101094
Ar 0.0101094 0 0.0101094
4
The is an optional comment line that can be empty.
Ar 0 0 0
Ar 0.0102103 0.0102103 0
Ar 0 0.0102103 0.0102103
Ar 0.0102103 0 0.0102103
4
The is an optional comment line that can be empty.
Ar 0 0 0
Ar 0.0103122 0.0103122 0
Ar 0 0.0103122 0.0103122
Ar 0.0103122 0 0.0103122
4
The is an optional comment line that can be empty.
Ar 0 0 0
Ar 0.0104151 0.0104151 0
Ar 0 0.0104151 0.0104151
Ar 0.0104151 0 0.0104151
4
The is an optional comment line that can be empty.
Ar 0 0 0
Ar 0.010519 0.010519 0
Ar 0 0.010519 0.010519
Ar 0.010519 0 0.010519
4
The is an optional comment line that can be empty.
Ar 0 0 0
Ar 0.0106239 0.0106239 0
Ar 0 0.0106239 0.0106239
Ar 0.0106239 0 0.0106239
4
The is an optional comment line that can be empty.
Ar 0 0 0
Ar 0.01073 0.01073 0
Ar 0 0.01073 0.01073
Ar 0.01073 0 0.01073
4
The is an optional comment line that can be empty.
Ar 0 0 0
Ar 0.010837 0.010837 0
Ar 0 0.010837 0.010837
Ar 0.010837 0 0.010837
4
The is an optional comment line that can be empty.
Ar 0 0 0
Ar 0.0109451 0.0109451 0
Ar 0 0.0109451 0.0109451
Ar 0.0109451 0 0.0109451
4
The is an optional comment line that can be empty.
Ar 0 0 0
Ar 0.0110543 0.0110543 0
Ar 0 0.0110543 0.0110543
Ar 0.0110543 0 0.0110543
4
The is an optional comment line that can be empty.
Ar 0 0 0
Ar 0.0111646 0.0111646 0
Ar 0 0.0111646 0.0111646
Ar 0.0111646 0 0.0111646
4
The is an optional comment line that can be empty.
Ar 0 0 0
Ar 0.011276 0.011276 0
Ar 0 0.011276 0.011276
Ar 0.011276 0 0.011276
4
The is an optional comment line that can be empty.
Ar 0 0 0
Ar 0.0113885 0.0113885 0
Ar 0 0.0113885 0.0113885
Ar 0.0113885 0 0.0113885
4
The is an optional comment line that can be empty.
Ar 0 0 0
Ar 0.0115022 0.0115022 0
Ar 0 0.0115022 0.0115022
Ar 0.0115022 0 0.0115022
4
The is an optional comment line that can be empty.
Ar 0 0 0
Ar 0.0116169 0.0116169 0
Ar 0 0.0116169 0.0116169
Ar 0.0116169 0 0.0116169
4
The is an optional comment line that can be empty.
Ar 0 0 0
Ar 0.0117329 0.0117329 0
Ar 0 0.0117329 0.0117329
Ar 0.0117329 0 0.0117329
4
The is an optional comment line that can be empty.
Ar 0 0 0
Ar 0.0118499 0.0118499 0
Ar 0 0.0118499 0.0118499
Ar 0.0118499 0 0.0118499
4
The is an optional comment line that can be empty.
Ar 0 0 0
Ar 0.0119682 0.0119682 0
Ar 0 0.0119682 0.0119682
Ar 0.0119682 0 0.0119682
4
The is an optional comment line that can be empty.
Ar 0 0 0
Ar 0.0120876 0.0120876 0
Ar 0 0.0120876 0.0120876
Ar 0.0120876 0 0.0120876
4
The is an optional comment line that can be empty.
Ar 0 0 0
Ar 0.0122082 0.0122082 0
Ar 0 0.0122082 0.0122082
Ar 0.0122082 0 0.0122082
4
The is an optional comment line that can be empty.
Ar 0 0 0
Ar 0.01233 0.01233 0
Ar 0 0.01233 0.01233
Ar 0.01233 0 0.01233
4
The is an optional comment line that can be empty.
Ar 0 0 0
Ar 0.012453 0.012453 0
Ar 0 0.012453 0.012453
Ar 0.012453 0 0.012453
4
The is an optional comment line that can be empty.
Ar 0 0 0
Ar 0.0125773 0.0125773 0
Ar 0 0.0125773 0.0125773
Ar 0.0125773 0 0.0125773
4
The is an optional comment line that can be empty.
Ar 0 0 0
Ar 0.0127028 0.0127028 0
Ar 0 0.0127028 0.0127028
Ar 0.0127028 0 0.0127028
4
The is an optional comment line that can be empty.
Ar 0 0 0
Ar 0.0128295 0.0128295 0
Ar 0 0.0128295 0.0128295
Ar 0.0128295 0 0.0128295
4
The is an optional comment line that can be empty.
Ar 0 0 0
Ar 0.0129575 0.0129575 0
Ar 0 0.0129575 0.0129575
Ar 0.0129575 0 0.0129575
